/*--------------------------------*- C++ -*----------------------------------*\
| =========                 |                                                 |
| \\      /  F ield         | OpenFOAM: The Open Source CFD Toolbox           |
|  \\    /   O peration     | Version:  4.0                                   |
|   \\  /    A nd           | Web:      www.OpenFOAM.org                      |
|    \\/     M anipulation  |                                                 |
\*---------------------------------------------------------------------------*/
FoamFile
{
    version     2.0;
    format      ascii;
    class       dictionary;
    location    "system";
    object      setFieldsDict;
}
// * * * * * * * * * * * * * * * * * * * * * * * * * * * * * * * * * * * * * //

defaultFieldValues
(
    volScalarFieldValue phi 0.0
    volScalarFieldValue T 0.9
);

regions
(
	/*
	boxToCell	// boxToCell: work on all cells in a rectangular box defined with starting and end point coordinates
	{
		box (-50 -50 -1) (0 50 1);	// Box can be larger than domain; in general this avoids edge effects
		fieldValues					// NB: no semicolons at the end of the dictionary entries below!
		(
			volScalarFieldValue phi 1.0
		);
	}
	*/
    
    /*
	cylinderToCell
    {
        p1 (0 0 0.01) ;
        p2 (0 0 -0.01);
	radius 20;

        fieldValues
        (
            volScalarFieldValue phi 1.0
		);
    }
    */
    
    sphereToCell
    {
        centre (0 0 0) ;
        radius 20;

        fieldValues
        (
            volScalarFieldValue phi 1.0
		);
    }
    
);


// ************************************************************************* //
